*Heading
** Job name: gear-B Model name: gear-B
** Generated by: Abaqus/CAE 2018
*Preprint, echo=NO, model=NO, history=NO, contact=NO
**
** PARTS
**
*Part, name=Part-2
*Node
      1,   1.96287608, -0.098846212,           0.
      2,   1.97149479, -0.197357953,           0.
      3,   1.98582685, -0.295201898,           0.
      4,   2.00582361, -0.392046988,           0.
      5,   2.03141785, -0.487565488,           0.
      6,   2.06252265,  -0.58143425,           0.
      7,   2.09903264, -0.673335612,           0.
      8,   2.14082456, -0.762958586,           0.
      9,   2.23967075, -0.934165239,           0.
     10,   2.35772443,  -1.09273899,           0.
     11,   2.42346478,  -1.16661084,           0.
     12,   2.49338913,  -1.23653519,           0.
     13,   2.56726098,  -1.30227554,           0.
     14,   2.64483047,  -1.36360943,           0.
     15,   2.72583485,  -1.42032933,           0.
     16,   2.80999994,  -1.47224319,           0.
     17,   2.89704132,  -1.51917553,           0.
     18,    2.9866643,  -1.56096733,           0.
     19,   3.07856584,  -1.59747744,           0.
     20,   3.17243457,  -1.62858212,           0.
** ... 20352 like lines cut
*Element, type=C3D8,elset=ALL
   1,  4388,  8891,  4097,  4118, 14574, 19077, 14283, 14304
   2,   715,  4093,  4655,  4670, 10901, 14279, 14841, 14856
   3,  4087,  4092,   578,  3243, 14273, 14278, 10764, 13429
   4,  3243,   577,  4808,  4087, 13429, 10763, 14994, 14273
   5,  4047,  3231,   567,  4041, 14233, 13417, 10753, 14227
   6,  3228,  4036,  4038,   564, 13414, 14222, 14224, 10750
   7,  5328,  8906,  6070,  9136, 15514, 19092, 16256, 19322
   8,  6942,  9447,   753,  7632, 17128, 19633, 10939, 17818
   9,  7351,  7894,   740,  8530, 17537, 18080, 10926, 18716
  10,  8566,   727,  8698,   728, 18752, 10913, 18884, 10914
  11,   721,   720,   710,   709, 10907, 10906, 10896, 10895
  12,   671,   694,   693,   692, 10857, 10880, 10879, 10878
  13,     6,     5,   693,   700, 10192, 10191, 10879, 10886
  14,   722,   708,   724,   707, 10908, 10894, 10910, 10893
  15,  8716,   738,   725,   726, 18902, 10924, 10911, 10912
  16,  8566,   739,   738,  8716, 18752, 10925, 10924, 18902
  17,  7562,  6937,   773,  6602, 17748, 17123, 10959, 16788
  18,  5129,  5755,  5147,  4285, 15315, 15941, 15333, 14471
  19,  4044,  4039,  4628,  4602, 14230, 14225, 14814, 14788
  20,  3227,  4039,  4044,   563, 13413, 14225, 14230, 10749
** ... 9562 like lines cut
*Node
  20373,   3.66000009,           0., 0.0500000007
*Nset, nset=Part-2-RefPt_, internal
20373, 
*Nset, nset=RP
 20373,
*Nset, nset=inner
     1,     2,     3,     4,     5,     6,     7,     8,     9,    10,    11,    12,    13,    14,    15,    16
    17,    18,    19,    20,    21,    22,    23,    24,    25,    26,    27,    28,    29,    30,    31,    32
    33,    34,    35,    36,    37,    38,    39,    40,    41,    42,    43,    44,    45,    46,    47,    48
    49,    50,    51,    52,    53,    54,    55,    56,    57,    58,    59,    60,    61,    62,    63,    64
    65,    66,    67,    68,    69,    70,    71,    72,    73,    74,    75,    76,    77,    78,    79,    80
    81,    82,    83,    84,    85,    86,    87,    88,    89,    90,    91,    92,    93,    94,    95,    96
    97,    98,    99,  2661,  2662,  2663,  2664,  2665,  2666,  2667,  2668,  2669, 10187, 10188, 10189, 10190
 10191, 10192, 10193, 10194, 10195, 10196, 10197, 10198, 10199, 10200, 10201, 10202, 10203, 10204, 10205, 10206
 10207, 10208, 10209, 10210, 10211, 10212, 10213, 10214, 10215, 10216, 10217, 10218, 10219, 10220, 10221, 10222
 10223, 10224, 10225, 10226, 10227, 10228, 10229, 10230, 10231, 10232, 10233, 10234, 10235, 10236, 10237, 10238
 10239, 10240, 10241, 10242, 10243, 10244, 10245, 10246, 10247, 10248, 10249, 10250, 10251, 10252, 10253, 10254
 10255, 10256, 10257, 10258, 10259, 10260, 10261, 10262, 10263, 10264, 10265, 10266, 10267, 10268, 10269, 10270
 10271, 10272, 10273, 10274, 10275, 10276, 10277, 10278, 10279, 10280, 10281, 10282, 10283, 10284, 10285, 12847
 12848, 12849, 12850, 12851, 12852, 12853, 12854, 12855
*Elset, elset=inner
   13,   96,  121,  136,  144,  167,  172,  262,  263,  264,  345,  346,  347,  358,  365,  367
  373,  374,  401,  402,  403,  404,  415,  419,  420,  421,  422,  424,  425,  439,  440,  474
  480,  481,  485,  486,  507,  518,  519,  549,  550,  551,  552,  579,  592,  610,  611,  612
  631,  632,  679,  680,  681,  723,  738,  746,  748,  749,  750,  768,  770,  794,  805,  814
  833,  838,  839,  842,  843,  850,  854, 1939, 1942, 1943, 1946, 1947, 1957, 1991, 1993, 2048
 2053, 2070, 2071, 2141, 2182, 2183, 2227, 2243, 2244, 2249, 2360, 2438, 2449, 2577, 2674, 2729
 2744, 2800, 2802, 2803, 2829, 2853, 2959, 3005, 3010, 3070, 3093, 3720
*Nset, nset=boundary
   100,   101,   102,   103,   104,   105,   106,   107,   108,   109,   110,   111,   112,   113,   114,   115
   116,   117,   118,   119,   120,   121,   122,   123,   124,   125,   126,   127,   128,   129,   130,   131
   132,   133,   134,   135,   136,   137,   138,   139,   140,   141,   142,   143,   144,   145,   146,   147
   148,   149,   150,   151,   152,   153,   154,   155,   156,   157,   158,   159,   160,   161,   162,   163
   164,   165,   166,   167,   168,   169,   170,   171,   172,   173,   174,   175,   176,   177,   178,   179
   180,   181,   182,   183,   184,   185,   186,   187,   188,   189,   190,   191,   192,   193,   194,   195
   196,   197,   198,   199,   200,   201,   202,   203,   204,   205,   206,   207,   208,   209,   210,   211
   212,   213,   214,   215,   216,   217,   218,   219,   220,   221,   222,   223,   224,   225,   226,   227
   228,   229,   230,   231,   232,   233,   234,   235,   236,   237,   238,   239,   240,   241,   242,   243
   244,   245,   246,   247,   248,   249,   250,   251,   252,   253,   254,   255,   256,   257,   258,   259
   260,   261,   262,   263,   264,   265,   266,   267,   268,   269,   270,   271,   272,   273,   274,   275
   276,   277,   278,   279,   280,   281,   282,   283,   284,   285,   286,   287,   288,   289,   290,   291
   292,   293,   294,   295,   296,   297,   298,   299,   300,   301,   302,   303,   304,   305,   306,   307
   308,   309,   310,   311,   312,   313,   314,   315,   316,   317,   318,   319,   320,   321,   322,   323
   324,   325,   326,   327,   328,   329,   330,   331,   332,   333,   334,   335,   336,   337,   338,   339
   340,   341,   342,   343,   344,   345,   346,   347,   348,   349,   350,   351,   352,   353,   354,   355
   356,   357,   358,   359,   360,   361,   362,   363,   364,   365,   366,   367,   368,   369,   370,   371
   372,   373,   374,   375,   376,   377,   378,   379,   380,   381,   382,   383,   384,   385,   386,   387
   388,   389,   390,   391,   392,   393,   394,   395,   396,   397,   398,   399,   400,   401,   402,   403
   404,   405,   406,   407,   408,   409,   410,   411,   412,   413,   414,   415,   416,   417,   418,   419
** ... 118 like lines cut
*Elset, elset=outer
    3,    4,    5,    6,   20,   22,   25,   26,   70,   71,   72,   73,  103,  108,  109,  110
  111,  112,  113,  137,  140,  150,  151,  152,  182,  183,  184,  185,  186,  187,  188,  202
  228,  229,  255,  299,  300,  389,  390,  393,  411,  413,  437,  496,  497,  499,  500,  501
  502,  503,  504,  517,  528,  529,  538,  539,  540,  541,  565,  566,  568,  569,  570,  593
  594,  595,  646,  647,  648,  658,  659,  660,  661,  663,  664,  665,  666,  667,  689,  695
  697,  698,  701,  703,  704,  705,  709,  763,  764,  765,  766,  767,  781,  782,  786,  802
  803,  804,  865,  867,  868,  870,  873,  881,  888,  889,  890,  923,  928,  939,  942,  943
  945,  947,  948,  949,  951,  952,  956,  957,  958,  981,  982,  985,  986,  987,  988,  989
  990,  991,  994,  995,  997, 1000, 1001, 1004, 1010, 1013, 1015, 1022, 1028, 1029, 1030, 1031
 1033, 1034, 1035, 1037, 1038, 1040, 1041, 1052, 1054, 1055, 1060, 1062, 1063, 1074, 1075, 1076
 1078, 1079, 1080, 1082, 1083, 1084, 1085, 1086, 1087, 1089, 1090, 1092, 1094, 1095, 1096, 1097
 1098, 1099, 1101, 1103, 1111, 1119, 1121, 1122, 1124, 1139, 1141, 1142, 1144, 1145, 1166, 1167
 1168, 1180, 1181, 1182, 1184, 1185, 1186, 1191, 1200, 1202, 1204, 1205, 1206, 1208, 1209, 1211
 1212, 1215, 1232, 1235, 1236, 1238, 1239, 1240, 1243, 1244, 1247, 1248, 1249, 1257, 1260, 1270
 1273, 1274, 1285, 1286, 1291, 1292, 1293, 1294, 1298, 1299, 1302, 1308, 1309, 1310, 1311, 1312
 1313, 1314, 1315, 1316, 1318, 1323, 1324, 1325, 1326, 1327, 1328, 1329, 1337, 1338, 1339, 1340
 1346, 1347, 1348, 1354, 1358, 1359, 1372, 1373, 1381, 1382, 1385, 1386, 1388, 1390, 1391, 1392
 1396, 1397, 1398, 1399, 1400, 1404, 1406, 1407, 1412, 1413, 1417, 1418, 1419, 1421, 1423, 1427
 1431, 1432, 1437, 1440, 1443, 1444, 1445, 1446, 1447, 1449, 1450, 1451, 1464, 1466, 1468, 1473
 1474, 1475, 1479, 1497, 1509, 1510, 1512, 1513, 1515, 1516, 1517, 1519, 1520, 1521, 1522, 1523
** ... 46 like lines cut
*Nset, nset=bulk, generate
     1,  20373,      1
*Elset, elset=bulk, generate
    1,  9582,     1
*Elset, elset=_inner_S3, internal
   13,  136,  167,  262,  345,  367,  373,  374,  401,  403,  404,  422,  480,  518,  612,  632
  679,  749,  768,  814,  838, 1946, 1993, 2048, 2053, 2243, 2244, 2249, 2674, 2744, 2800, 2829
 2959, 3005, 3010
*Elset, elset=_inner_S5, internal
   96,  144,  264,  346,  402,  421,  439,  440,  481,  485,  486,  507,  519,  549,  579,  610
  611,  631,  680,  723,  746,  794,  805,  839,  842,  850, 1943, 1991, 2070, 2071, 2183, 2227
 2729, 2802, 3720
*Elset, elset=_inner_S4, internal
  121,  347,  358,  420,  425,  474,  552,  592,  748,  833,  843,  854, 2182, 2577, 2853, 3070
 3093,
*Elset, elset=_inner_S6, internal
  172,  263,  365,  415,  419,  424,  550,  551,  681,  738,  750,  770, 1939, 1942, 1947, 1957
 2141, 2360, 2438, 2449, 2803
*Surface, type=ELEMENT, name=inner
_inner_S3, S3
_inner_S5, S5
_inner_S4, S4
_inner_S6, S6
*Elset, elset=_outer_S4, internal
    5,   26,   71,  140,  150,  151,  152,  202,  229,  255,  389,  390,  437,  517,  529,  538
  539,  593,  594,  647,  659,  665,  698,  764,  765,  767,  802,  803,  865,  881,  942,  943
  982,  991,  997, 1015, 1030, 1033, 1034, 1035, 1062, 1075, 1078, 1095, 1096, 1099, 1103, 1121
 1141, 1145, 1166, 1168, 1232, 1236, 1238, 1243, 1247, 1260, 1274, 1285, 1291, 1294, 1309, 1310
 1323, 1328, 1338, 1339, 1340, 1398, 1400, 1404, 1406, 1413, 1417, 1419, 1474, 1475, 1479, 1497
 1510, 1513, 1520, 1555, 1556, 1558, 1562, 1630, 1643, 1674, 1678, 1719, 1729, 1738, 1786, 1802
 1806, 1807, 1857, 1866, 1868, 1882, 1903, 1919, 1920, 1922, 1980, 2437, 2447, 2465, 2825, 2979
 3048, 3049, 3068, 3074, 3107, 3121, 3359, 3373, 3380, 3722, 3728, 3731, 3733, 3736, 3745, 3746
 3747, 3749, 3753, 3758, 3760, 3764, 3769, 3770, 3771, 3774, 3775, 3779, 3783, 3785, 3790, 3799
 3801, 3806, 3813, 3819, 3823, 3832, 3834, 3835, 3850, 3851, 3861, 3871, 3872, 3877, 3886, 3888
 3896, 3898, 3900, 3901, 3907, 3910, 3923, 3924, 3925, 3928, 3939, 3941, 3953, 3961, 3963, 3966
 3967, 3971, 3976, 3977, 3981, 3995, 4000, 4013, 4032, 4033, 4035, 4038, 4045, 4048, 4052, 4053
 4062, 4067, 4075, 4094, 4129, 4152, 4155, 4159, 4192, 4250, 4282, 4286, 4313, 4327, 4328, 4332
 4355, 4362, 4388, 4392, 4404, 4424, 4428, 4435, 4439, 4442, 4444, 4445, 4446, 4449, 4451, 4516
 4518, 4536, 4537, 4540, 4542, 4589, 4591, 4650, 4657, 4658, 4679, 4690, 4691, 4705, 4709, 4712
 4726, 4727, 4730, 4731
*Elset, elset=_outer_S6, internal
    6,   20,   22,   25,   70,   72,   73,  103,  137,  393,  528,  595,  646,  648,  658,  660
  661,  663,  664,  666,  667,  689,  695,  697,  709,  763,  766,  781,  782,  786,  804,  888
  889,  890,  928,  945,  947,  956,  957,  958,  981, 1000, 1001, 1010, 1013, 1028, 1029, 1031
 1040, 1041, 1052, 1054, 1055, 1063, 1074, 1076, 1079, 1080, 1082, 1084, 1085, 1094, 1097, 1098
 1101, 1139, 1167, 1180, 1181, 1182, 1184, 1200, 1235, 1244, 1248, 1273, 1286, 1292, 1293, 1318
 1324, 1325, 1326, 1327, 1337, 1399, 1407, 1412, 1418, 1421, 1423, 1427, 1466, 1468, 1473, 1512
 1515, 1516, 1517, 1547, 1554, 1560, 1571, 1616, 1642, 1649, 1650, 1652, 1670, 1671, 1676, 1677
 1679, 1684, 1686, 1728, 1731, 1733, 1736, 1762, 1805, 1808, 1812, 1822, 1827, 1849, 1855, 1856
 1860, 1867, 1874, 1881, 1883, 1902, 1904, 1952, 1981, 2005, 2006, 2023, 2113, 2374, 2392, 2526
 2759, 2794, 2851, 2852, 2956, 3067, 3122, 3135, 3353, 3366, 3415, 3426, 3569, 3570, 3670, 3671
 3681, 3691, 3710, 3721, 3724, 3727, 3730, 3732, 3734, 3735, 3737, 3738, 3743, 3744, 3748, 3750
 3754, 3759, 3761, 3762, 3763, 3765, 3777, 3780, 3781, 3784, 3786, 3787, 3788, 3791, 3792, 3798
 3800, 3802, 3803, 3814, 3815, 3817, 3820, 3830, 3831, 3833, 3836, 3838, 3848, 3852, 3858, 3860
 3862, 3863, 3864, 3865, 3870, 3873, 3874, 3875, 3876, 3878, 3895, 3897, 3899, 3902, 3905, 3908
 3909, 3915, 3916, 3921, 3926, 3927, 3930, 3942, 3943, 3945, 3960, 3962, 3964, 3965, 3968, 3969
 3972, 3978, 3980, 3982, 3983, 3986, 3994, 3996, 3997, 3998, 4001, 4002, 4021, 4022, 4023, 4024
 4025, 4026, 4028, 4034, 4036, 4037, 4040, 4046, 4047, 4049, 4051, 4054, 4061, 4063, 4170, 4260
 4265, 4301, 4317, 4452, 4472, 4483
*Elset, elset=_outer_S5, internal
    3,  108,  109,  110,  113,  182,  186,  299,  300,  413,  497,  500,  541,  565,  568,  701
  703,  705,  870,  939,  949,  951,  985,  987,  988,  994,  995, 1037, 1086, 1090, 1092, 1119
 1122, 1186, 1204, 1205, 1206, 1211, 1215, 1239, 1240, 1270, 1302, 1311, 1313, 1315, 1346, 1347
 1348, 1382, 1385, 1386, 1388, 1390, 1392, 1396, 1431, 1432, 1440, 1444, 1446, 1447, 1449, 1450
 1451, 1464, 1509, 1517, 1519, 1520, 1523, 1530, 1563, 1570, 1574, 1592, 1598, 1601, 1604, 1628
 1660, 1681, 1687, 1689, 1697, 1706, 1720, 1721, 1745, 1749, 1750, 1759, 1760, 1762, 1771, 1773
 1798, 1811, 1815, 1819, 1828, 1843, 1847, 1860, 1861, 1862, 1864, 1865, 1871, 1872, 1877, 1878
 1881, 1899, 1924, 1927, 1928, 2177, 2262, 2493, 2514, 2527, 2620, 2910, 3113, 3273, 3379, 3396
 3416, 3505, 3524, 3596, 3603, 3605, 3684, 3690, 3699, 3719, 3726, 3735, 3738, 3742, 3750, 3751
 3752, 3754, 3765, 3767, 3769, 3772, 3777, 3778, 3781, 3782, 3792, 3796, 3797, 3803, 3805, 3810
 3820, 3823, 3836, 3839, 3840, 3843, 3844, 3847, 3849, 3852, 3857, 3863, 3875, 3878, 3881, 3882
 3886, 3887, 3888, 3892, 3894, 3902, 3911, 3914, 3916, 3921, 3943, 3945, 3953, 3954, 3955, 3958
 3959, 3969, 3970, 3972, 3983, 3984, 3992, 3998, 4002, 4008, 4009, 4013, 4015, 4018, 4026, 4027
 4031, 4040, 4043, 4054, 4063, 4064, 4066, 4067, 4079, 4082, 4084, 4092, 4100, 4106, 4123, 4144
 4178, 4184, 4208, 4211, 4216, 4218, 4220, 4221, 4223, 4228, 4230, 4237, 4240, 4247, 4248, 4249
 4255, 4257, 4258, 4269, 4270, 4276, 4278, 4283, 4303, 4307, 4308, 4311, 4312, 4316, 4334, 4339
 4377, 4378, 4380, 4381, 4394, 4396, 4397, 4422, 4460, 4490, 4492, 4502, 4505, 4531, 4552, 4553
 4554, 4555, 4561, 4571, 4574, 4583, 4599, 4602, 4603, 4606, 4608, 4615, 4618, 4624, 4626, 4630
 4638, 4677, 4698, 4741, 4743, 4766
*Elset, elset=_outer_S3, internal
    4,  111,  112,  183,  184,  185,  187,  188,  228,  411,  496,  499,  501,  502,  503,  504
  540,  566,  569,  570,  704,  867,  868,  873,  923,  948,  952,  986,  989,  990, 1004, 1022
 1038, 1060, 1082, 1083, 1087, 1089, 1103, 1111, 1124, 1142, 1144, 1185, 1191, 1202, 1208, 1209
 1212, 1247, 1249, 1257, 1298, 1299, 1308, 1310, 1312, 1314, 1316, 1329, 1354, 1358, 1359, 1372
 1373, 1381, 1391, 1397, 1437, 1443, 1445, 1521, 1522, 1531, 1532, 1541, 1544, 1552, 1553, 1565
 1573, 1578, 1590, 1591, 1593, 1595, 1600, 1603, 1616, 1617, 1618, 1623, 1624, 1636, 1646, 1659
 1668, 1669, 1683, 1696, 1702, 1744, 1746, 1747, 1751, 1756, 1763, 1764, 1766, 1767, 1772, 1784
 1793, 1794, 1821, 1844, 1845, 1859, 1863, 1880, 1884, 1885, 1898, 1911, 1912, 1914, 1929, 1936
 2025, 2359, 2388, 2495, 2639, 2649, 2680, 2927, 2930, 3110, 3401, 3405, 3430, 3455, 3527, 3602
 3607, 3638, 3639, 3714, 3723, 3725, 3740, 3757, 3766, 3768, 3773, 3793, 3795, 3804, 3807, 3808
 3809, 3811, 3822, 3824, 3827, 3837, 3838, 3841, 3842, 3845, 3846, 3853, 3854, 3855, 3856, 3866
 3879, 3884, 3885, 3889, 3891, 3903, 3904, 3905, 3906, 3913, 3917, 3919, 3920, 3922, 3932, 3934
 3935, 3938, 3944, 3947, 3948, 3949, 3950, 3951, 3952, 3956, 3957, 3973, 3974, 3975, 3985, 3986
 3987, 3988, 3989, 3990, 3991, 3993, 3999, 4004, 4005, 4010, 4012, 4016, 4017, 4019, 4020, 4028
 4029, 4030, 4041, 4055, 4056, 4058, 4059, 4060, 4068, 4069, 4070, 4071, 4073, 4085, 4102, 4111
 4146, 4180, 4181, 4183, 4213, 4232, 4251, 4281, 4291, 4344, 4405, 4407, 4416, 4419, 4431, 4458
 4468, 4495, 4503, 4504, 4508, 4551, 4569, 4586, 4587, 4613, 4614, 4620, 4632, 4700, 4737, 4739
 4758, 4761, 4768, 4771, 4777, 4779, 4784, 4785, 4786, 4789, 4792, 9119
*Surface, type=ELEMENT, name=outer
_outer_S4, S4
_outer_S6, S6
_outer_S5, S5
_outer_S3, S3
** Section: Section-1
*Solid Section, elset=bulk, material=Material-1
,
*End Part
**  
**
** ASSEMBLY
**
*Assembly, name=Assembly
**  
*Instance, name=Part-2-1, part=Part-2
*End Instance
**  
*End Assembly
** 
** MATERIALS
** 
*Material, name=Material-1
*Density
 7.85e-09,
*Elastic
210000., 0.3
