*Heading
** Job name: gear-A Model name: gear-A
** Generated by: Abaqus/CAE 2018
*Preprint, echo=NO, model=NO, history=NO, contact=NO
**
** PARTS
**
*Part, name=Part-1
*Node
      1,  0.490392625, 0.0975451618,           0.
      2,  0.415734798,  0.277785122,           0.
      3,  0.353553385,  0.353553385,           0.
      4,  0.277785122,  0.415734798,           0.
      5,  0.191341713,  0.461939752,           0.
      6,           0.,          0.5,           0.
      7, -0.0975451618,  0.490392625,           0.
      8, -0.191341713,  0.461939752,           0.
      9, -0.277785122,  0.415734798,           0.
     10, -0.353553385,  0.353553385,           0.
     11, -0.415734798,  0.277785122,           0.
     12, -0.461939752,  0.191341713,           0.
     13, -0.490392625, 0.0975451618,           0.
     14,         -0.5,           0.,           0.
     15, -0.490392625, -0.0975451618,           0.
     16, -0.461939752, -0.191341713,           0.
     17, -0.415734798, -0.277785122,           0.
     18, -0.353553385, -0.353553385,           0.
     19, -0.277785122, -0.415734798,           0.
     20, -0.191341713, -0.461939752,           0.
** ... 4564 like lines cut
*Element, type=C3D8,elset=ALL
   1,  222, 1197, 1196,  928, 2514, 3489, 3488, 3220
   2,  670, 2103, 2044,  698, 2962, 4395, 4336, 2990
   3, 1924,  669,  326,  697, 4216, 2961, 2618, 2989
   4,  326,  669,  325,  307, 2618, 2961, 2617, 2599
   5,  669,  668,  667,  325, 2961, 2960, 2959, 2617
   6,  665,  799,    5,  666, 2957, 3091, 2297, 2958
   7,  667,  695,  694,  666, 2959, 2987, 2986, 2958
   8,  718,  693,  694,  719, 3010, 2985, 2986, 3011
   9,  719,  734,  733,  718, 3011, 3026, 3025, 3010
  10, 1978,  734, 1969, 2032, 4270, 3026, 4261, 4324
  11, 1035,  208,  919, 1019, 3327, 2500, 3211, 3311
  12,  747, 1019,  919,  201, 3039, 3311, 3211, 2493
  13, 1025,  918,  208, 1035, 3317, 3210, 2500, 3327
  14,  777,  207,  918, 1025, 3069, 2499, 3210, 3317
  15,  206, 1199, 1043,  917, 2498, 3491, 3335, 3209
  16, 1481, 2073,  782, 1291, 3773, 4365, 3074, 3583
  17, 1020,  204,  916, 1042, 3312, 2496, 3208, 3334
  18, 1260, 1042, 1009, 1488, 3552, 3334, 3301, 3780
  19, 1013,  203,  915, 1041, 3305, 2495, 3207, 3333
  20, 2073, 1481, 1590, 1659, 4365, 3773, 3882, 3951
** ... 2066 like lines cut
*Node
   4585,           0.,           0., 0.0500000007
*Nset, nset=Part-1-RefPt_, internal
4585, 
*Nset, nset=RP
 4585,
*Nset, nset=inner
    1,    2,    3,    4,    5,    6,    7,    8,    9,   10,   11,   12,   13,   14,   15,   16
   17,   18,   19,   20,   21,   22,   23,   24,   25,   26,   27,   28,  798,  799,  800,  801
 2293, 2294, 2295, 2296, 2297, 2298, 2299, 2300, 2301, 2302, 2303, 2304, 2305, 2306, 2307, 2308
 2309, 2310, 2311, 2312, 2313, 2314, 2315, 2316, 2317, 2318, 2319, 2320, 3090, 3091, 3092, 3093
*Elset, elset=inner
   6,  30,  31,  45, 106, 134, 136, 137, 165, 166, 175, 189, 200, 211, 253, 254
 255, 257, 262, 263, 321, 420, 612, 707, 725, 736, 749, 750, 754, 763, 823, 859
*Nset, nset=boundary
   29,   30,   31,   32,   33,   34,   35,   36,   37,   38,   39,   40,   41,   42,   43,   44
   45,   46,   47,   48,   49,   50,   51,   52,   53,   54,   55,   56,   57,   58,   59,   60
   61,   62,   63,   64,   65,   66,   67,   68,   69,   70,   71,   72,   73,   74,   75,   76
   77,   78,   79,   80,   81,   82,   83,   84,   85,   86,   87,   88,   89,   90,   91,   92
   93,   94,   95,   96,   97,   98,   99,  100,  101,  102,  103,  104,  105,  106,  107,  108
  109,  110,  111,  112,  113,  114,  115,  116,  117,  118,  119,  120,  121,  122,  123,  124
  125,  126,  127,  128,  129,  130,  131,  132,  133,  134,  135,  136,  137,  138,  139,  140
  141,  142,  143,  144,  145,  146,  147,  148,  149,  150,  151,  152,  153,  154,  155,  156
  157,  158,  159,  160,  161,  162,  163,  164,  165,  166,  167,  168,  169,  170,  171,  172
  173,  174,  175,  176,  177,  178,  179,  180,  181,  182,  183,  184,  185,  186,  187,  188
  189,  190,  191,  192,  193,  194,  195,  196,  197,  198,  199,  200,  201,  202,  203,  204
  205,  206,  207,  208,  209,  210,  211,  212,  213,  214,  215,  216,  217,  218,  219,  220
  221,  222,  223,  224,  225,  226,  227,  228,  229,  230,  231,  232,  233,  234,  235,  236
  237,  238,  239,  240,  241,  242,  243,  244,  245,  246,  247,  248,  249,  250,  251,  252
  253,  254,  255,  256,  257,  258,  802,  803,  804,  805,  806,  807,  808,  809,  810,  811
  812,  813,  814,  815,  816,  817,  818,  819,  820,  821,  822,  823,  824,  825,  826,  827
  828,  829,  830,  831,  832,  833,  834,  835,  836,  837,  838,  839,  840,  841,  842,  843
  844,  845,  846,  847,  848,  849,  850,  851,  852,  853,  854,  855,  856,  857,  858,  859
  860,  861,  862,  863,  864,  865,  866,  867,  868,  869,  870,  871,  872,  873,  874,  875
  876,  877,  878,  879,  880,  881,  882,  883,  884,  885,  886,  887,  888,  889,  890,  891
** ... 28 like lines cut
*Elset, elset=outer
    1,   11,   12,   13,   14,   15,   17,   19,   28,   29,   38,   40,   42,   56,   61,   62
   65,   67,   71,   75,   76,   77,   78,   82,   83,   84,   88,   89,   90,   94,   99,  100
  119,  121,  122,  124,  143,  155,  157,  186,  196,  197,  198,  199,  207,  208,  215,  216
  217,  222,  227,  229,  232,  234,  238,  242,  243,  244,  245,  264,  281,  283,  285,  286
  287,  288,  289,  290,  296,  297,  301,  302,  313,  315,  328,  334,  335,  341,  342,  343
  348,  350,  351,  355,  356,  361,  362,  363,  364,  368,  370,  371,  374,  377,  378,  391
  392,  394,  396,  397,  398,  399,  403,  406,  410,  411,  412,  413,  414,  421,  430,  431
  438,  439,  446,  447,  449,  450,  452,  453,  454,  465,  468,  469,  476,  478,  479,  480
  481,  482,  483,  487,  489,  490,  492,  497,  499,  506,  507,  508,  512,  514,  517,  518
  519,  521,  523,  525,  526,  527,  528,  533,  534,  547,  548,  549,  550,  562,  563,  564
  568,  573,  575,  576,  577,  578,  580,  581,  596,  598,  600,  601,  602,  603,  608,  613
  614,  616,  618,  619,  621,  627,  628,  629,  630,  639,  640,  641,  642,  652,  653,  659
  660,  662,  663,  664,  665,  669,  670,  671,  672,  674,  675,  677,  678,  680,  681,  682
  691,  692,  695,  696,  699,  700,  701,  702,  703,  713,  773,  781,  793,  803,  826,  881
  885,  907,  910,  919,  928,  935,  952,  982,  996,  997, 1000, 1026, 1038, 1039, 1040, 1041
 1042, 1043, 1044, 1045, 1046, 1047, 1048, 1049, 1050, 1051, 1052, 1053, 1054, 1055, 1056, 1057
 1058, 1059, 1060, 1061, 1062, 1063, 1064, 1065, 1066, 1067, 1068, 1069, 1070, 1071, 1072, 1073
 1074, 1075, 1077, 1078, 1079, 1080, 1081, 1082, 1083, 1084, 1085, 1086, 1087, 1088, 1089, 1090
 1091, 1092, 1093, 1094, 1095, 1096, 1097, 1098, 1099, 1100, 1101, 1102, 1103, 1104, 1105, 1106
 1108, 1115, 1116, 1120, 1121, 1124, 1127, 1128, 1131, 1132, 1133, 1134, 1135, 1136, 1138, 1140
 1157, 1167, 1168, 1170, 1171, 1181, 1182, 1183, 1189, 1191, 1192, 1193, 1199, 1200, 1201, 1202
 1204, 1206, 1210, 1211, 1212, 1215, 1216, 1219, 1220, 1223, 1225, 1226, 1229, 1231, 1234, 1235
 1240, 1252, 1253, 1257, 1258, 1264, 1274, 1275
*Nset, nset=bulk, generate
    1,  4585,     1
*Elset, elset=bulk, generate
    1,  2086,     1
*Elset, elset=_inner_S4, internal
   6, 137, 165, 166, 175, 211, 257, 263, 725
*Elset, elset=_inner_S3, internal
  30, 253, 255, 262, 707, 823
*Elset, elset=_inner_S5, internal
  31,  45, 134, 136, 200, 612, 749
*Elset, elset=_inner_S6, internal
 106, 189, 254, 321, 420, 736, 750, 754, 763, 859
*Surface, type=ELEMENT, name=inner
_inner_S4, S4
_inner_S3, S3
_inner_S6, S6
_inner_S5, S5
*Elset, elset=_outer_S4, internal
   11,   13,   14,   17,   19,   42,   56,   78,   83,   84,   89,   90,   94,  100,  143,  196
  197,  199,  216,  222,  227,  229,  245,  301,  302,  343,  350,  351,  355,  356,  361,  364
  368,  370,  374,  377,  391,  453,  506,  507,  528,  550,  568,  573,  575,  613,  628,  695
  696,  699,  702,  713,  803,  826,  881,  907, 1000, 1043, 1047, 1050, 1051, 1062, 1063, 1064
 1072, 1074, 1080, 1084, 1086, 1097, 1098, 1101, 1127, 1128, 1131, 1132, 1133, 1138, 1157, 1181
 1189, 1192, 1193, 1199, 1200, 1201, 1202, 1204, 1206, 1210, 1215, 1216, 1219, 1220, 1223, 1225
 1226, 1231, 1252, 1253, 1257, 1258
*Elset, elset=_outer_S6, internal
    1,   15,   29,   61,   62,   76,   77,   82,   88,   99,  119,  122,  198,  207,  208,  217
  243,  244,  264,  341,  342,  348,  362,  363,  371,  392,  414,  430,  478,  489,  490,  492
  508,  517,  518,  523,  548,  549,  576,  577,  578,  596,  614,  619,  627,  641,  642,  659
  680,  681,  682,  691,  692,  700,  701,  781,  910, 1044, 1045, 1046, 1049, 1052, 1053, 1059
 1060, 1061, 1068, 1073, 1075, 1081, 1082, 1083, 1085, 1087, 1088, 1089, 1095, 1096, 1103, 1108
*Elset, elset=_outer_S5, internal
   12,   28,   38,   40,   65,   67,   71,  121,  122,  155,  157,  186,  215,  232,  234,  238
  264,  288,  290,  313,  315,  335,  378,  392,  394,  398,  403,  406,  413,  431,  450,  452
  468,  469,  476,  479,  481,  482,  483,  487,  497,  514,  519,  523,  526,  533,  534,  564
  580,  581,  596,  598,  602,  608,  616,  618,  619,  621,  629,  630,  640,  652,  660,  662
  664,  665,  669,  672,  677,  703,  773,  982, 1040, 1042, 1044, 1048, 1052, 1054, 1055, 1056
 1057, 1059, 1065, 1067, 1068, 1069, 1070, 1071, 1073, 1078, 1079, 1081, 1087, 1090, 1091, 1092
 1093, 1095, 1099, 1100, 1102, 1103, 1104, 1105, 1106, 1115, 1116, 1121, 1124, 1135, 1136, 1140
 1182, 1183, 1191, 1211, 1212, 1234, 1235, 1240, 1264
*Elset, elset=_outer_S3, internal
   29,   75,  124,  242,  281,  283,  285,  286,  287,  289,  296,  297,  328,  334,  361,  396
  397,  399,  410,  411,  412,  421,  438,  439,  446,  447,  449,  453,  454,  465,  480,  499
  512,  521,  525,  527,  547,  562,  563,  578,  600,  601,  603,  639,  653,  663,  670,  671
  674,  675,  678,  702,  793,  885,  919,  928,  935,  952,  996,  997, 1026, 1038, 1039, 1041
 1058, 1066, 1077, 1094, 1120, 1134, 1167, 1168, 1170, 1171, 1229, 1274, 1275
*Surface, type=ELEMENT, name=outer
_outer_S4, S4
_outer_S6, S6
_outer_S5, S5
_outer_S3, S3
** Section: Section-1
*Solid Section, elset=bulk, material=Material-1
,
*End Part
**  
**
** ASSEMBLY
**
*Assembly, name=Assembly
**  
*Instance, name=Part-1-1, part=Part-1
*End Instance
**  
*End Assembly
** 
** MATERIALS
** 
*Material, name=Material-1
*Density
 7.85e-09,
*Elastic
210000., 0.3
