*Heading
** Job name: SUBSTRATE1 Model name: substrate
** Generated by: Abaqus/CAE 2018
*Preprint, echo=NO, model=NO, history=NO, contact=NO
**
** PARTS
**
*Part, name=substrate
*Node
      1,           2.,  0.449999988,           0.
      2,           2.,  0.449999988,          0.5
      3,           2.,           0.,          0.5
      4,           2.,           0.,           0.
      5,           0.,  0.449999988,          0.5
      6,           0.,           0.,          0.5
      7,           0.,           0.,           0.
      8,           0.,  0.449999988,           0.
      9,           2.,          0.5,           0.
     10,           2.,          0.5,          0.5
     11,           0.,          0.5,           0.
     12,           0.,          0.5,          0.5
     13,           2.,  0.449999988, 0.0199999996
     14,           2.,  0.449999988, 0.0399999991
     15,           2.,  0.449999988, 0.0599999987
     16,           2.,  0.449999988, 0.0799999982
     17,           2.,  0.449999988,  0.100000001
     18,           2.,  0.449999988,  0.119999997
     19,           2.,  0.449999988,  0.140000001
     20,           2.,  0.449999988,  0.159999996
** ... 20988 like lines cut
*Element, type=C3D8,elset=ALL
    1,   322,  1755,  9129,   963,     1,    13,   771,    68
    2,  1755,  1756,  9130,  9129,    13,    14,   772,   771
    3,  1756,  1757,  9131,  9130,    14,    15,   773,   772
    4,  1757,  1758,  9132,  9131,    15,    16,   774,   773
    5,  1758,  1759,  9133,  9132,    16,    17,   775,   774
    6,  1759,  1760,  9134,  9133,    17,    18,   776,   775
    7,  1760,  1761,  9135,  9134,    18,    19,   777,   776
    8,  1761,  1762,  9136,  9135,    19,    20,   778,   777
    9,  1762,  1763,  9137,  9136,    20,    21,   779,   778
   10,  1763,  1764,  9138,  9137,    21,    22,   780,   779
   11,  1764,  1765,  9139,  9138,    22,    23,   781,   780
   12,  1765,  1766,  9140,  9139,    23,    24,   782,   781
   13,  1766,  1767,  9141,  9140,    24,    25,   783,   782
   14,  1767,  1768,  9142,  9141,    25,    26,   784,   783
   15,  1768,  1769,  9143,  9142,    26,    27,   785,   784
   16,  1769,  1770,  9144,  9143,    27,    28,   786,   785
   17,  1770,  1771,  9145,  9144,    28,    29,   787,   786
   18,  1771,  1772,  9146,  9145,    29,    30,   788,   787
   19,  1772,  1773,  9147,  9146,    30,    31,   789,   788
   20,  1773,  1774,  9148,  9147,    31,    32,   790,   789
** ... 17480 like lines cut
*Nset, nset=refine
     1,     2,     5,     8,     9,    10,    11,    12,    13,    14,    15,    16,    17,    18,    19,    20
    21,    22,    23,    24,    25,    26,    27,    28,    29,    30,    31,    32,    33,    34,    35,    36
    69,    70,    71,    72,    73,    74,    75,    76,    77,    78,    79,    80,    81,    82,    83,    84
    85,    86,    87,    88,    89,    90,    91,    92,   224,   225,   226,   227,   228,   229,   230,   231
   232,   233,   234,   235,   236,   237,   238,   239,   240,   241,   242,   243,   244,   245,   246,   247
   248,   249,   250,   251,   252,   253,   254,   255,   256,   257,   258,   259,   260,   261,   262,   263
   264,   265,   266,   267,   268,   269,   270,   271,   272,   273,   274,   275,   276,   277,   278,   279
   280,   281,   282,   283,   284,   285,   286,   287,   288,   289,   290,   291,   292,   293,   294,   295
   296,   297,   298,   299,   300,   301,   302,   303,   304,   305,   306,   307,   308,   309,   310,   311
   312,   313,   314,   315,   316,   317,   318,   319,   320,   321,   322,   422,   423,   424,   425,   426
   427,   428,   429,   430,   431,   432,   433,   434,   435,   436,   437,   438,   439,   440,   441,   442
   443,   444,   445,   446,   447,   448,   449,   450,   451,   452,   453,   454,   455,   456,   457,   458
   459,   460,   461,   462,   463,   464,   465,   466,   467,   468,   469,   470,   471,   472,   473,   474
   475,   476,   477,   478,   479,   480,   481,   482,   483,   484,   485,   486,   487,   488,   489,   490
   491,   492,   493,   494,   495,   496,   497,   498,   499,   500,   501,   502,   503,   504,   505,   506
   507,   508,   509,   510,   511,   512,   513,   514,   515,   516,   517,   518,   519,   520,   521,   522
   523,   524,   525,   526,   527,   528,   529,   530,   531,   532,   533,   534,   535,   536,   537,   538
   539,   540,   541,   542,   543,   544,   545,   546,   547,   548,   549,   550,   551,   552,   553,   554
   555,   556,   557,   558,   559,   560,   561,   562,   563,   564,   565,   566,   567,   568,   569,   570
   571,   572,   573,   574,   575,   576,   577,   578,   579,   580,   581,   582,   583,   584,   585,   586
** ... 473 like lines cut
*Elset, elset=refine, generate
 12501,  17500,      1
*Nset, nset=boundary
    9,   10,   11,   12,  522,  523,  524,  525,  526,  527,  528,  529,  530,  531,  532,  533
  534,  535,  536,  537,  538,  539,  540,  541,  542,  543,  544,  545,  548,  549,  550,  551
  552,  553,  554,  555,  556,  557,  558,  559,  560,  561,  562,  563,  564,  565,  566,  567
  568,  569,  570,  571,  573,  574,  575,  576,  577,  578,  579,  580,  581,  582,  583,  584
  585,  586,  587,  588,  589,  590,  591,  592,  593,  594,  595,  596,  597,  598,  599,  600
  601,  602,  603,  604,  605,  606,  607,  608,  609,  610,  611,  612,  613,  614,  615,  616
  617,  618,  619,  620,  621,  622,  623,  624,  625,  626,  627,  628,  629,  630,  631,  632
  633,  634,  635,  636,  637,  638,  639,  640,  641,  642,  643,  644,  645,  646,  647,  648
  649,  650,  651,  652,  653,  654,  655,  656,  657,  658,  659,  660,  661,  662,  663,  664
  665,  666,  667,  668,  669,  670,  671,  672,  673,  674,  675,  676,  677,  678,  679,  680
  681,  682,  683,  684,  685,  686,  687,  688,  689,  690,  691,  692,  693,  694,  695,  696
  697,  698,  699,  700,  701,  702,  703,  704,  705,  706,  707,  708,  709,  710,  711,  712
  713,  714,  715,  716,  717,  718,  719,  720,  721,  722,  723,  724,  725,  726,  727,  728
  729,  730,  731,  732,  733,  734,  735,  736,  737,  738,  739,  740,  741,  742,  743,  744
  745,  746,  747,  748,  749,  750,  751,  752,  753,  754,  755,  756,  757,  758,  759,  760
  761,  762,  763,  764,  765,  766,  767,  768,  769,  770, 6753, 6754, 6755, 6756, 6757, 6758
 6759, 6760, 6761, 6762, 6763, 6764, 6765, 6766, 6767, 6768, 6769, 6770, 6771, 6772, 6773, 6774
 6775, 6776, 6777, 6778, 6779, 6780, 6781, 6782, 6783, 6784, 6785, 6786, 6787, 6788, 6789, 6790
 6791, 6792, 6793, 6794, 6795, 6796, 6797, 6798, 6799, 6800, 6801, 6802, 6803, 6804, 6805, 6806
 6807, 6808, 6809, 6810, 6811, 6812, 6813, 6814, 6815, 6816, 6817, 6818, 6819, 6820, 6821, 6822
** ... 145 like lines cut
*Elset, elset=top
 12526, 12527, 12528, 12529, 12530, 12531, 12532, 12533, 12534, 12535, 12536, 12537, 12538, 12539, 12540, 12541
 12542, 12543, 12544, 12545, 12546, 12547, 12548, 12549, 12550, 12576, 12577, 12578, 12579, 12580, 12581, 12582
 12583, 12584, 12585, 12586, 12587, 12588, 12589, 12590, 12591, 12592, 12593, 12594, 12595, 12596, 12597, 12598
 12599, 12600, 12626, 12627, 12628, 12629, 12630, 12631, 12632, 12633, 12634, 12635, 12636, 12637, 12638, 12639
 12640, 12641, 12642, 12643, 12644, 12645, 12646, 12647, 12648, 12649, 12650, 12676, 12677, 12678, 12679, 12680
 12681, 12682, 12683, 12684, 12685, 12686, 12687, 12688, 12689, 12690, 12691, 12692, 12693, 12694, 12695, 12696
 12697, 12698, 12699, 12700, 12726, 12727, 12728, 12729, 12730, 12731, 12732, 12733, 12734, 12735, 12736, 12737
 12738, 12739, 12740, 12741, 12742, 12743, 12744, 12745, 12746, 12747, 12748, 12749, 12750, 12776, 12777, 12778
 12779, 12780, 12781, 12782, 12783, 12784, 12785, 12786, 12787, 12788, 12789, 12790, 12791, 12792, 12793, 12794
 12795, 12796, 12797, 12798, 12799, 12800, 12826, 12827, 12828, 12829, 12830, 12831, 12832, 12833, 12834, 12835
 12836, 12837, 12838, 12839, 12840, 12841, 12842, 12843, 12844, 12845, 12846, 12847, 12848, 12849, 12850, 12876
 12877, 12878, 12879, 12880, 12881, 12882, 12883, 12884, 12885, 12886, 12887, 12888, 12889, 12890, 12891, 12892
 12893, 12894, 12895, 12896, 12897, 12898, 12899, 12900, 12926, 12927, 12928, 12929, 12930, 12931, 12932, 12933
 12934, 12935, 12936, 12937, 12938, 12939, 12940, 12941, 12942, 12943, 12944, 12945, 12946, 12947, 12948, 12949
 12950, 12976, 12977, 12978, 12979, 12980, 12981, 12982, 12983, 12984, 12985, 12986, 12987, 12988, 12989, 12990
 12991, 12992, 12993, 12994, 12995, 12996, 12997, 12998, 12999, 13000, 13026, 13027, 13028, 13029, 13030, 13031
 13032, 13033, 13034, 13035, 13036, 13037, 13038, 13039, 13040, 13041, 13042, 13043, 13044, 13045, 13046, 13047
 13048, 13049, 13050, 13076, 13077, 13078, 13079, 13080, 13081, 13082, 13083, 13084, 13085, 13086, 13087, 13088
 13089, 13090, 13091, 13092, 13093, 13094, 13095, 13096, 13097, 13098, 13099, 13100, 13126, 13127, 13128, 13129
 13130, 13131, 13132, 13133, 13134, 13135, 13136, 13137, 13138, 13139, 13140, 13141, 13142, 13143, 13144, 13145
** ... 137 like lines cut
*Nset, nset=bottom
    3,    4,    6,    7,   41,   42,   43,   44,   45,   46,   47,   48,   49,   50,   51,   52
   53,   54,   55,   56,   57,   58,   59,   60,   61,   62,   63,   64,   97,   98,   99,  100
  101,  102,  103,  104,  105,  106,  107,  108,  109,  110,  111,  112,  113,  114,  115,  116
  117,  118,  119,  120,  125,  126,  127,  128,  129,  130,  131,  132,  133,  134,  135,  136
  137,  138,  139,  140,  141,  142,  143,  144,  145,  146,  147,  148,  149,  150,  151,  152
  153,  154,  155,  156,  157,  158,  159,  160,  161,  162,  163,  164,  165,  166,  167,  168
  169,  170,  171,  172,  173,  174,  175,  176,  177,  178,  179,  180,  181,  182,  183,  184
  185,  186,  187,  188,  189,  190,  191,  192,  193,  194,  195,  196,  197,  198,  199,  200
  201,  202,  203,  204,  205,  206,  207,  208,  209,  210,  211,  212,  213,  214,  215,  216
  217,  218,  219,  220,  221,  222,  223,  323,  324,  325,  326,  327,  328,  329,  330,  331
  332,  333,  334,  335,  336,  337,  338,  339,  340,  341,  342,  343,  344,  345,  346,  347
  348,  349,  350,  351,  352,  353,  354,  355,  356,  357,  358,  359,  360,  361,  362,  363
  364,  365,  366,  367,  368,  369,  370,  371,  372,  373,  374,  375,  376,  377,  378,  379
  380,  381,  382,  383,  384,  385,  386,  387,  388,  389,  390,  391,  392,  393,  394,  395
  396,  397,  398,  399,  400,  401,  402,  403,  404,  405,  406,  407,  408,  409,  410,  411
  412,  413,  414,  415,  416,  417,  418,  419,  420,  421, 4131, 4132, 4133, 4134, 4135, 4136
 4137, 4138, 4139, 4140, 4141, 4142, 4143, 4144, 4145, 4146, 4147, 4148, 4149, 4150, 4151, 4152
 4153, 4154, 4155, 4156, 4157, 4158, 4159, 4160, 4161, 4162, 4163, 4164, 4165, 4166, 4167, 4168
 4169, 4170, 4171, 4172, 4173, 4174, 4175, 4176, 4177, 4178, 4179, 4180, 4181, 4182, 4183, 4184
 4185, 4186, 4187, 4188, 4189, 4190, 4191, 4192, 4193, 4194, 4195, 4196, 4197, 4198, 4199, 4200
** ... 145 like lines cut
*Elset, elset=bottom
   101,   102,   103,   104,   105,   106,   107,   108,   109,   110,   111,   112,   113,   114,   115,   116
   117,   118,   119,   120,   121,   122,   123,   124,   125,   226,   227,   228,   229,   230,   231,   232
   233,   234,   235,   236,   237,   238,   239,   240,   241,   242,   243,   244,   245,   246,   247,   248
   249,   250,   351,   352,   353,   354,   355,   356,   357,   358,   359,   360,   361,   362,   363,   364
   365,   366,   367,   368,   369,   370,   371,   372,   373,   374,   375,   476,   477,   478,   479,   480
   481,   482,   483,   484,   485,   486,   487,   488,   489,   490,   491,   492,   493,   494,   495,   496
   497,   498,   499,   500,   601,   602,   603,   604,   605,   606,   607,   608,   609,   610,   611,   612
   613,   614,   615,   616,   617,   618,   619,   620,   621,   622,   623,   624,   625,   726,   727,   728
   729,   730,   731,   732,   733,   734,   735,   736,   737,   738,   739,   740,   741,   742,   743,   744
   745,   746,   747,   748,   749,   750,   851,   852,   853,   854,   855,   856,   857,   858,   859,   860
   861,   862,   863,   864,   865,   866,   867,   868,   869,   870,   871,   872,   873,   874,   875,   976
   977,   978,   979,   980,   981,   982,   983,   984,   985,   986,   987,   988,   989,   990,   991,   992
   993,   994,   995,   996,   997,   998,   999,  1000,  1101,  1102,  1103,  1104,  1105,  1106,  1107,  1108
  1109,  1110,  1111,  1112,  1113,  1114,  1115,  1116,  1117,  1118,  1119,  1120,  1121,  1122,  1123,  1124
  1125,  1226,  1227,  1228,  1229,  1230,  1231,  1232,  1233,  1234,  1235,  1236,  1237,  1238,  1239,  1240
  1241,  1242,  1243,  1244,  1245,  1246,  1247,  1248,  1249,  1250,  1351,  1352,  1353,  1354,  1355,  1356
  1357,  1358,  1359,  1360,  1361,  1362,  1363,  1364,  1365,  1366,  1367,  1368,  1369,  1370,  1371,  1372
  1373,  1374,  1375,  1476,  1477,  1478,  1479,  1480,  1481,  1482,  1483,  1484,  1485,  1486,  1487,  1488
  1489,  1490,  1491,  1492,  1493,  1494,  1495,  1496,  1497,  1498,  1499,  1500,  1601,  1602,  1603,  1604
  1605,  1606,  1607,  1608,  1609,  1610,  1611,  1612,  1613,  1614,  1615,  1616,  1617,  1618,  1619,  1620
** ... 137 like lines cut
*Nset, nset=symmetry
    2,    3,    5,    6,   10,   12,   37,   38,   39,   40,   93,   94,   95,   96,  323,  324
  325,  326,  327,  328,  329,  330,  331,  332,  333,  334,  335,  336,  337,  338,  339,  340
  341,  342,  343,  344,  345,  346,  347,  348,  349,  350,  351,  352,  353,  354,  355,  356
  357,  358,  359,  360,  361,  362,  363,  364,  365,  366,  367,  368,  369,  370,  371,  372
  373,  374,  375,  376,  377,  378,  379,  380,  381,  382,  383,  384,  385,  386,  387,  388
  389,  390,  391,  392,  393,  394,  395,  396,  397,  398,  399,  400,  401,  402,  403,  404
  405,  406,  407,  408,  409,  410,  411,  412,  413,  414,  415,  416,  417,  418,  419,  420
  421,  422,  423,  424,  425,  426,  427,  428,  429,  430,  431,  432,  433,  434,  435,  436
  437,  438,  439,  440,  441,  442,  443,  444,  445,  446,  447,  448,  449,  450,  451,  452
  453,  454,  455,  456,  457,  458,  459,  460,  461,  462,  463,  464,  465,  466,  467,  468
  469,  470,  471,  472,  473,  474,  475,  476,  477,  478,  479,  480,  481,  482,  483,  484
  485,  486,  487,  488,  489,  490,  491,  492,  493,  494,  495,  496,  497,  498,  499,  500
  501,  502,  503,  504,  505,  506,  507,  508,  509,  510,  511,  512,  513,  514,  515,  516
  517,  518,  519,  520,  546,  572,  573,  574,  575,  576,  577,  578,  579,  580,  581,  582
  583,  584,  585,  586,  587,  588,  589,  590,  591,  592,  593,  594,  595,  596,  597,  598
  599,  600,  601,  602,  603,  604,  605,  606,  607,  608,  609,  610,  611,  612,  613,  614
  615,  616,  617,  618,  619,  620,  621,  622,  623,  624,  625,  626,  627,  628,  629,  630
  631,  632,  633,  634,  635,  636,  637,  638,  639,  640,  641,  642,  643,  644,  645,  646
  647,  648,  649,  650,  651,  652,  653,  654,  655,  656,  657,  658,  659,  660,  661,  662
  663,  664,  665,  666,  667,  668,  669,  670,  671, 1359, 1360, 1361, 1362, 1363, 1364, 1365
** ... 31 like lines cut
*Elset, elset=symmetry
    25,    50,    75,   100,   125,   150,   175,   200,   225,   250,   275,   300,   325,   350,   375,   400
   425,   450,   475,   500,   525,   550,   575,   600,   625,   650,   675,   700,   725,   750,   775,   800
   825,   850,   875,   900,   925,   950,   975,  1000,  1025,  1050,  1075,  1100,  1125,  1150,  1175,  1200
  1225,  1250,  1275,  1300,  1325,  1350,  1375,  1400,  1425,  1450,  1475,  1500,  1525,  1550,  1575,  1600
  1625,  1650,  1675,  1700,  1725,  1750,  1775,  1800,  1825,  1850,  1875,  1900,  1925,  1950,  1975,  2000
  2025,  2050,  2075,  2100,  2125,  2150,  2175,  2200,  2225,  2250,  2275,  2300,  2325,  2350,  2375,  2400
  2425,  2450,  2475,  2500,  2525,  2550,  2575,  2600,  2625,  2650,  2675,  2700,  2725,  2750,  2775,  2800
  2825,  2850,  2875,  2900,  2925,  2950,  2975,  3000,  3025,  3050,  3075,  3100,  3125,  3150,  3175,  3200
  3225,  3250,  3275,  3300,  3325,  3350,  3375,  3400,  3425,  3450,  3475,  3500,  3525,  3550,  3575,  3600
  3625,  3650,  3675,  3700,  3725,  3750,  3775,  3800,  3825,  3850,  3875,  3900,  3925,  3950,  3975,  4000
  4025,  4050,  4075,  4100,  4125,  4150,  4175,  4200,  4225,  4250,  4275,  4300,  4325,  4350,  4375,  4400
  4425,  4450,  4475,  4500,  4525,  4550,  4575,  4600,  4625,  4650,  4675,  4700,  4725,  4750,  4775,  4800
  4825,  4850,  4875,  4900,  4925,  4950,  4975,  5000,  5025,  5050,  5075,  5100,  5125,  5150,  5175,  5200
  5225,  5250,  5275,  5300,  5325,  5350,  5375,  5400,  5425,  5450,  5475,  5500,  5525,  5550,  5575,  5600
  5625,  5650,  5675,  5700,  5725,  5750,  5775,  5800,  5825,  5850,  5875,  5900,  5925,  5950,  5975,  6000
  6025,  6050,  6075,  6100,  6125,  6150,  6175,  6200,  6225,  6250,  6275,  6300,  6325,  6350,  6375,  6400
  6425,  6450,  6475,  6500,  6525,  6550,  6575,  6600,  6625,  6650,  6675,  6700,  6725,  6750,  6775,  6800
  6825,  6850,  6875,  6900,  6925,  6950,  6975,  7000,  7025,  7050,  7075,  7100,  7125,  7150,  7175,  7200
  7225,  7250,  7275,  7300,  7325,  7350,  7375,  7400,  7425,  7450,  7475,  7500,  7525,  7550,  7575,  7600
  7625,  7650,  7675,  7700,  7725,  7750,  7775,  7800,  7825,  7850,  7875,  7900,  7925,  7950,  7975,  8000
** ... 24 like lines cut
*Nset, nset=bulk, generate
     1,  21008,      1
*Elset, elset=bulk, generate
     1,  17500,      1
** Section: Section-1
*Solid Section, elset=bulk, material=Material-1
,
*End Part
**  
**
** ASSEMBLY
**
*Assembly, name=Assembly
**  
*Instance, name=substrate-1, part=substrate
*End Instance
**  
*End Assembly
** 
** MATERIALS
** 
*Material, name=Material-1
*Elastic
 8.94e-06, 0.31
*Plastic, hardening=JOHNSON COOK
 0.145,   0.,   0.,   0.,1600.,   0.
